<?xml version="1.0" encoding="UTF-8"?>

<!-- generated on 2025-03-21 19:56:10.899343 by randomTrips.py v1_20_0+0002-343658e7c64
<configuration>
    <net-file value="trafalgar.net.xml"/>
    <route-file value="vehicles.rou.xml"/>
    <flows value="100"/>
</configuration>
-->

<!-- generated on 2025-03-21 19:56:10 by Eclipse SUMO duarouter Version 1.20.0
<configuration xmlns:xsi="http://www.w3.org/2001/XMLSchema-instance" xsi:noNamespaceSchemaLocation="http://sumo.dlr.de/xsd/duarouterConfiguration.xsd">

    <input>
        <net-file value="trafalgar.net.xml"/>
        <route-files value="trips.trips.xml"/>
    </input>

    <output>
        <output-file value="vehicles.rou.xml"/>
        <alternatives-output value="NUL"/>
    </output>

    <time>
        <begin value="0.0"/>
        <end value="3600.0"/>
    </time>

    <report>
        <no-warnings value="true"/>
        <ignore-errors value="true"/>
        <no-step-log value="true"/>
    </report>

</configuration>
-->

<routes xmlns:xsi="http://www.w3.org/2001/XMLSchema-instance" xsi:noNamespaceSchemaLocation="http://sumo.dlr.de/xsd/routes_file.xsd">
    <vehicle id="0.0" depart="0.00">
        <route edges="43118737#2 4256531 230506722#0 230506722#1 49796163 43118738#0 43118738#1 43118738#2 43118739 43118733#0 43118733#1 43118733#2 43118734 451852747 43365536 23715305#0 23715305#1 23715305#2 39093506#0 39093506#1 1008674254 483872217#0 483872217#1 483872217#2 230503369#0 230503369#1 230503369#2 -4256546 4256546 -230503369#2 -230503369#1 -230503369#0"/>
    </vehicle>
    <vehicle id="1.0" depart="0.00">
        <route edges="230506728 43118734 451852747 43365536 43118737#0 43118737#1 43118737#2 4256531 23715307 267215482#0 267215482#1 515540039 498958807#0 498958807#1 195406732#0"/>
    </vehicle>
    <vehicle id="10.0" depart="0.00">
        <route edges="480094740#1 480094740#2 43365536 43118737#0 43118737#1 43118737#2 4256531 230506722#0 230506722#1 49796163 43118738#0 43118738#1"/>
    </vehicle>
    <vehicle id="11.0" depart="0.00">
        <route edges="23715305#1 23715305#2 39093506#0 39093506#1 1008674254"/>
    </vehicle>
    <vehicle id="14.0" depart="0.00">
        <route edges="483872216 480094740#0 480094740#1 480094740#2 43365536 43118737#0 43118737#1 43118737#2 4256531 230506722#0 230506722#1 49796163 43118738#0 43118738#1 43118738#2 43118739 43118733#0"/>
    </vehicle>
    <vehicle id="15.0" depart="0.00">
        <route edges="480094740#2 43365536 43118737#0 43118737#1 43118737#2 4256531 230506722#0 230506722#1 49796163 43118738#0 43118738#1 43118738#2 43118739 23715312#0 23715312#1 23715312#2 23715315#0 23715315#1 230506725 43154948"/>
    </vehicle>
    <vehicle id="17.0" depart="0.00">
        <route edges="23715308#1 49796163 43118738#0 43118738#1 43118738#2 43118739 43118733#0 43118733#1 43118733#2 43118734 111971057#0 111971057#1 377367118"/>
    </vehicle>
    <vehicle id="18.0" depart="0.00">
        <route edges="480094741 483872216 480094740#0 480094740#1 480094740#2 43365536 43118737#0 43118737#1 43118737#2 4256531 230506722#0 230506722#1 49796163 43118738#0 43118738#1 43118738#2 43118739 43118733#0 43118733#1"/>
    </vehicle>
    <vehicle id="20.0" depart="0.00">
        <route edges="43365536 23715305#0 23715305#1 23715305#2 39093506#0 39093506#1 1008674254 483872217#0 483872217#1 483872217#2 230503369#0 230503369#1 230503369#2 -4256546 4256546 -230503369#2 -230503369#1"/>
    </vehicle>
    <vehicle id="22.0" depart="0.00">
        <route edges="-483872216 -480094741 480094741 483872216 480094740#0 480094740#1 480094740#2 43365536 43118737#0 43118737#1 43118737#2 4256531 23715307 267215482#0 267215482#1 515540039 498958807#0 498958807#1 195406732#0 195406732#1"/>
    </vehicle>
    <vehicle id="24.0" depart="0.00">
        <route edges="43118737#1 43118737#2 4256531 230506722#0 230506722#1 49796163 43118738#0 43118738#1 43118738#2 43118739 43118733#0 43118733#1 43118733#2 43118734 451852747 43365536 23715305#0 23715305#1 23715305#2 39093506#0 39093506#1 1008674254 -1008674254 -39093506#1 -39093506#0 23715304#0 23715304#1 23715304#2"/>
    </vehicle>
    <vehicle id="25.0" depart="0.00">
        <route edges="23715308#0 23715308#1 49796163 43118738#0 43118738#1 43118738#2 43118739 43118733#0 43118733#1 43118733#2 43118734 111971057#0 111971057#1"/>
    </vehicle>
    <vehicle id="26.0" depart="0.00">
        <route edges="230506725 43154948 230506728 43118734 451852747 43365536 43118737#0 43118737#1 43118737#2 4256531 23715307 267215482#0 267215482#1 515540039 498958807#0 498958807#1"/>
    </vehicle>
    <vehicle id="27.0" depart="0.00">
        <route edges="43118738#0 43118738#1 43118738#2 43118739 43118733#0"/>
    </vehicle>
    <vehicle id="28.0" depart="0.00">
        <route edges="111971057#0 111971057#1 377367118 480094740#0 480094740#1 480094740#2 43365536 43118737#0 43118737#1 43118737#2 4256531 230506722#0 230506722#1 49796163 43118738#0 43118738#1 43118738#2 43118739 23715312#0 23715312#1 23715312#2 23715315#0 23715315#1 230506725 43154948"/>
    </vehicle>
    <vehicle id="29.0" depart="0.00">
        <route edges="1065112866 23715308#0 23715308#1 49796163 43118738#0 43118738#1 43118738#2 43118739 43118733#0 43118733#1 43118733#2 43118734 451852747 43365536 23715305#0 23715305#1"/>
    </vehicle>
    <vehicle id="3.0" depart="0.00">
        <route edges="49796163 43118738#0 43118738#1 43118738#2 43118739 43118733#0 43118733#1 43118733#2 43118734 451852747 43365536 23715305#0 23715305#1 23715305#2 39093506#0 39093506#1 1008674254 483872217#0 483872217#1 483872217#2 230503369#0 230503369#1 230503369#2 -4256546"/>
    </vehicle>
    <vehicle id="30.0" depart="0.00">
        <route edges="817967122 575394078 522735403 1065112866 23715308#0 23715308#1 49796163 43118738#0 43118738#1 43118738#2 43118739 43118733#0 43118733#1 43118733#2 43118734"/>
    </vehicle>
    <vehicle id="32.0" depart="0.00">
        <route edges="483872216 480094740#0 480094740#1 480094740#2 43365536 43118737#0 43118737#1 43118737#2 4256531 230506722#0 230506722#1 49796163 4369049#0 4369049#1 4369049#2"/>
    </vehicle>
    <vehicle id="33.0" depart="0.00">
        <route edges="230503369#2 -4256546 4256546 -230503369#2 -230503369#1 -230503369#0"/>
    </vehicle>
    <vehicle id="34.0" depart="0.00">
        <route edges="23715304#2 4256531 230506722#0 230506722#1 49796163 43118738#0 43118738#1 43118738#2 43118739 43118733#0 43118733#1 43118733#2 43118734 451852747 43365536 23715305#0 23715305#1 23715305#2 39093506#0 39093506#1 1008674254 483872217#0 483872217#1 483872217#2 230503369#0 230503369#1 230503369#2"/>
    </vehicle>
    <vehicle id="37.0" depart="0.00">
        <route edges="43118738#0 43118738#1 43118738#2 43118739 43118733#0 43118733#1 43118733#2 43118734 451852747 43365536 23715305#0 23715305#1 23715305#2"/>
    </vehicle>
    <vehicle id="38.0" depart="0.00">
        <route edges="498185199#1 43154948 230506728 43118734 451852747 43365536 43118737#0 43118737#1 43118737#2 4256531 230506722#0 230506722#1 49796163 43118738#0 43118738#1 43118738#2 43118739 23715312#0 23715312#1"/>
    </vehicle>
    <vehicle id="39.0" depart="0.00">
        <route edges="230506725 43154948 230506728 43118734 451852747 43365536 23715305#0 23715305#1 23715305#2 39093506#0 39093506#1 1008674254 483872217#0 483872217#1 483872217#2 230503369#0"/>
    </vehicle>
    <vehicle id="4.0" depart="0.00">
        <route edges="23715315#0 23715315#1 230506725 43154948 230506728 43118734 451852747 43365536 23715305#0 23715305#1 23715305#2 39093506#0 39093506#1 1008674254 483872217#0 483872217#1 483872217#2 230503369#0 230503369#1 230503369#2 -4256546 4256546 -230503369#2 -230503369#1 -230503369#0"/>
    </vehicle>
    <vehicle id="40.0" depart="0.00">
        <route edges="4256546 -230503369#2 -230503369#1 -230503369#0 230503369#0 230503369#1"/>
    </vehicle>
    <vehicle id="41.0" depart="0.00">
        <route edges="43118733#1 43118733#2 43118734 451852747 43365536 43118737#0 43118737#1 43118737#2 4256531 230506722#0 230506722#1 49796163"/>
    </vehicle>
    <vehicle id="42.0" depart="0.00">
        <route edges="23715312#1 23715312#2 23715315#0 23715315#1 230506725 43154948 230506728 43118734 451852747 43365536 43118737#0 43118737#1 43118737#2 4256531 23715307 267215482#0 267215482#1 515540039 498958807#0 498958807#1 195406732#0"/>
    </vehicle>
    <vehicle id="43.0" depart="0.00">
        <route edges="817967122 575394078 522735403 1065112866 23715308#0 23715308#1 49796163 43118738#0 43118738#1 43118738#2 43118739 23715312#0 23715312#1 23715312#2 267213247#0 267213247#1"/>
    </vehicle>
    <vehicle id="47.0" depart="0.00">
        <route edges="-39093506#0 23715304#0 23715304#1 23715304#2 4256531 230506722#0 230506722#1 49796163 43118738#0 43118738#1 43118738#2 43118739 43118733#0 43118733#1 43118733#2 43118734 451852747 43365536 23715305#0 23715305#1"/>
    </vehicle>
    <vehicle id="48.0" depart="0.00">
        <route edges="817967122 575394078 522735403 1065112866 23715308#0 23715308#1 49796163 43118738#0 43118738#1 43118738#2 43118739 43118733#0 43118733#1 43118733#2 43118734 451852747 43365536 43118737#0 43118737#1 43118737#2 4256531 23715307 267215482#0"/>
    </vehicle>
    <vehicle id="49.0" depart="0.00">
        <route edges="522735403 1065112866 23715308#0 23715308#1 49796163 43118738#0 43118738#1 43118738#2 43118739 43118733#0 43118733#1 43118733#2 43118734 111971057#0 111971057#1 377367118 -483872216 -480094741 480094741 483872216"/>
    </vehicle>
    <vehicle id="51.0" depart="0.00">
        <route edges="43118738#2 43118739 43118733#0 43118733#1 43118733#2 43118734 451852747 43365536 43118737#0 43118737#1 43118737#2 4256531 23715307 267215482#0"/>
    </vehicle>
    <vehicle id="52.0" depart="0.00">
        <route edges="230506725 43154948 230506728 43118734"/>
    </vehicle>
    <vehicle id="55.0" depart="0.00">
        <route edges="483872217#2 230503369#0 230503369#1"/>
    </vehicle>
    <vehicle id="57.0" depart="0.00">
        <route edges="498185199#1 43154948 230506728 43118734 451852747 43365536 23715305#0 23715305#1 23715305#2 39093506#0 39093506#1 1008674254 483872217#0"/>
    </vehicle>
    <vehicle id="58.0" depart="0.00">
        <route edges="23715304#1 23715304#2 4256531 230506722#0 230506722#1 49796163 43118738#0 43118738#1 43118738#2 43118739 43118733#0 43118733#1 43118733#2 43118734"/>
    </vehicle>
    <vehicle id="59.0" depart="0.00">
        <route edges="43118734 451852747 43365536 23715305#0 23715305#1 23715305#2 39093506#0 39093506#1 1008674254"/>
    </vehicle>
    <vehicle id="60.0" depart="0.00">
        <route edges="4373934#2 43118739 43118733#0 43118733#1 43118733#2 43118734 451852747 43365536 43118737#0 43118737#1 43118737#2 4256531 23715307 267215482#0"/>
    </vehicle>
    <vehicle id="61.0" depart="0.00">
        <route edges="451852747 43365536 43118737#0 43118737#1 43118737#2 4256531 23715307 267215482#0"/>
    </vehicle>
    <vehicle id="62.0" depart="0.00">
        <route edges="-1008674254 -39093506#1 -39093506#0 23715304#0 23715304#1 23715304#2 4256531 230506722#0 230506722#1 49796163 43118738#0 43118738#1 43118738#2 43118739 23715312#0 23715312#1 23715312#2 23715315#0 23715315#1 230506730"/>
    </vehicle>
    <vehicle id="63.0" depart="0.00">
        <route edges="-195406732#0 -498958807#1 -498958807#0 498958807#0"/>
    </vehicle>
    <vehicle id="65.0" depart="0.00">
        <route edges="23715304#2 4256531 230506722#0 230506722#1 49796163 43118738#0 43118738#1 43118738#2 43118739 43118733#0 43118733#1 43118733#2 43118734 451852747 43365536 23715305#0 23715305#1 23715305#2 39093506#0 39093506#1 1008674254 -1008674254 -39093506#1 -39093506#0"/>
    </vehicle>
    <vehicle id="67.0" depart="0.00">
        <route edges="-483872216 -480094741 480094741 483872216 480094740#0 480094740#1 480094740#2 43365536 43118737#0 43118737#1 43118737#2 4256531 230506722#0 230506722#1 49796163 43118738#0 43118738#1 43118738#2 43118739 23715312#0 23715312#1 23715312#2 23715315#0 23715315#1"/>
    </vehicle>
    <vehicle id="68.0" depart="0.00">
        <route edges="-39093506#1 -39093506#0 23715304#0 23715304#1 23715304#2 4256531 230506722#0 230506722#1 49796163 4369049#0 4369049#1"/>
    </vehicle>
    <vehicle id="69.0" depart="0.00">
        <route edges="4373934#2 43118739 43118733#0 43118733#1 43118733#2 43118734 451852747 43365536 43118737#0 43118737#1 43118737#2 4256531 23715307 267215482#0 267215482#1 515540039 498958807#0 498958807#1 -498958807#1"/>
    </vehicle>
    <vehicle id="7.0" depart="0.00">
        <route edges="43118738#0 43118738#1 43118738#2 43118739 43118733#0 43118733#1 43118733#2 43118734 451852747 43365536 43118737#0 43118737#1 43118737#2 4256531 23715307 267215482#0 267215482#1"/>
    </vehicle>
    <vehicle id="70.0" depart="0.00">
        <route edges="267215482#0 267215482#1"/>
    </vehicle>
    <vehicle id="71.0" depart="0.00">
        <route edges="230506725 43154948 230506728 43118734 451852747 43365536 23715305#0 23715305#1 23715305#2 39093506#0 39093506#1 1008674254 483872217#0"/>
    </vehicle>
    <vehicle id="72.0" depart="0.00">
        <route edges="23715315#0 23715315#1 230506725 43154948 230506728 43118734 111971057#0 111971057#1"/>
    </vehicle>
    <vehicle id="73.0" depart="0.00">
        <route edges="39093506#1 1008674254 -1008674254 -39093506#1 -39093506#0 23715304#0 23715304#1 23715304#2 4256531 230506722#0 230506722#1 49796163 43118738#0 43118738#1 43118738#2 43118739 23715312#0 23715312#1 23715312#2 23715315#0 23715315#1 230506725 43154948"/>
    </vehicle>
    <vehicle id="75.0" depart="0.00">
        <route edges="817967122 575394078 522735403 1065112866 23715308#0 23715308#1 49796163 43118738#0 43118738#1 43118738#2 43118739 43118733#0 43118733#1 43118733#2 43118734 451852747 43365536 43118737#0"/>
    </vehicle>
    <vehicle id="76.0" depart="0.00">
        <route edges="23715315#1 230506725 43154948 230506728 43118734 451852747 43365536 43118737#0 43118737#1 43118737#2 4256531 230506722#0 230506722#1 49796163 43118738#0 43118738#1 43118738#2 43118739 23715312#0 23715312#1 23715312#2 267213247#0 267213247#1 267213247#2"/>
    </vehicle>
    <vehicle id="77.0" depart="0.00">
        <route edges="-498958807#2 195406732#0"/>
    </vehicle>
    <vehicle id="78.0" depart="0.00">
        <route edges="23715305#1 23715305#2 39093506#0 39093506#1 1008674254 -1008674254 -39093506#1 -39093506#0 23715304#0 23715304#1 23715304#2 4256531"/>
    </vehicle>
    <vehicle id="80.0" depart="0.00">
        <route edges="-39093506#1 -39093506#0 23715304#0 23715304#1 23715304#2 4256531 230506722#0 230506722#1 49796163 43118738#0 43118738#1 43118738#2 43118739 43118733#0 43118733#1 43118733#2"/>
    </vehicle>
    <vehicle id="89.0" depart="0.00">
        <route edges="23715315#0 23715315#1 230506725 43154948 230506728 43118734 451852747 43365536 43118737#0 43118737#1 43118737#2 4256531 230506722#0 230506722#1 49796163 43118738#0 43118738#1 43118738#2 43118739 23715312#0 23715312#1 23715312#2"/>
    </vehicle>
    <vehicle id="9.0" depart="0.00">
        <route edges="480094740#2 43365536 23715305#0 23715305#1 23715305#2 39093506#0 39093506#1 1008674254 -1008674254"/>
    </vehicle>
    <vehicle id="91.0" depart="0.00">
        <route edges="575394078 522735403 1065112866 23715308#0 23715308#1 49796163 43118738#0 43118738#1 43118738#2 43118739 43118733#0 43118733#1 43118733#2 43118734 111971057#0 111971057#1 377367118 -483872216 -480094741"/>
    </vehicle>
    <vehicle id="92.0" depart="0.00">
        <route edges="23715312#1 23715312#2 23715315#0 23715315#1 230506725 43154948 230506728 43118734 451852747 43365536 23715305#0 23715305#1 23715305#2 39093506#0 39093506#1 1008674254 -1008674254 -39093506#1 -39093506#0 23715304#0"/>
    </vehicle>
    <vehicle id="93.0" depart="0.00">
        <route edges="483872217#0 483872217#1 483872217#2 230503369#0"/>
    </vehicle>
    <vehicle id="94.0" depart="0.00">
        <route edges="111971057#1 377367118 480094740#0 480094740#1 480094740#2 43365536 43118737#0 43118737#1 43118737#2 4256531 230506722#0 230506722#1 49796163 43118738#0 43118738#1 43118738#2 43118739 23715312#0 23715312#1"/>
    </vehicle>
    <vehicle id="95.0" depart="0.00">
        <route edges="23715315#0 23715315#1 230506725 43154948 230506728 43118734 451852747 43365536 43118737#0 43118737#1 43118737#2 4256531 230506722#0"/>
    </vehicle>
    <vehicle id="96.0" depart="0.00">
        <route edges="230506722#0 230506722#1 49796163 43118738#0 43118738#1 43118738#2 43118739 43118733#0 43118733#1 43118733#2 43118734 451852747 43365536 43118737#0 43118737#1 43118737#2 4256531 23715307 267215482#0 267215482#1 515540039 498958807#0"/>
    </vehicle>
    <vehicle id="97.0" depart="0.00">
        <route edges="23715315#1 230506725 43154948 230506728 43118734 111971057#0 111971057#1 377367118 -483872216 -480094741 480094741 483872216"/>
    </vehicle>
    <vehicle id="98.0" depart="0.00">
        <route edges="4256531 230506722#0 230506722#1 49796163 43118738#0 43118738#1 43118738#2 43118739 43118733#0 43118733#1 43118733#2 43118734 451852747 43365536 23715305#0 23715305#1 23715305#2 39093506#0 39093506#1 1008674254 483872217#0 483872217#1 483872217#2 230503369#0 230503369#1 230503369#2 -4256546 4256546 -230503369#2"/>
    </vehicle>
    <vehicle id="99.0" depart="0.00">
        <route edges="817967122 575394078 522735403 1065112866 23715308#0 23715308#1 49796163 43118738#0 43118738#1 43118738#2 43118739 43118733#0 43118733#1 43118733#2 43118734 111971057#0 111971057#1 377367118 480094740#0 480094740#1"/>
    </vehicle>
    <vehicle id="0.1" depart="100.00">
        <route edges="43118737#2 4256531 230506722#0 230506722#1 49796163 43118738#0 43118738#1 43118738#2 43118739 43118733#0 43118733#1 43118733#2 43118734 451852747 43365536 23715305#0 23715305#1 23715305#2 39093506#0 39093506#1 1008674254 483872217#0 483872217#1 483872217#2 230503369#0 230503369#1 230503369#2 -4256546 4256546 -230503369#2 -230503369#1 -230503369#0"/>
    </vehicle>
    <vehicle id="1.1" depart="100.00">
        <route edges="230506728 43118734 451852747 43365536 43118737#0 43118737#1 43118737#2 4256531 23715307 267215482#0 267215482#1 515540039 498958807#0 498958807#1 195406732#0"/>
    </vehicle>
    <vehicle id="10.1" depart="100.00">
        <route edges="480094740#1 480094740#2 43365536 43118737#0 43118737#1 43118737#2 4256531 230506722#0 230506722#1 49796163 43118738#0 43118738#1"/>
    </vehicle>
    <vehicle id="11.1" depart="100.00">
        <route edges="23715305#1 23715305#2 39093506#0 39093506#1 1008674254"/>
    </vehicle>
    <vehicle id="14.1" depart="100.00">
        <route edges="483872216 480094740#0 480094740#1 480094740#2 43365536 43118737#0 43118737#1 43118737#2 4256531 230506722#0 230506722#1 49796163 43118738#0 43118738#1 43118738#2 43118739 43118733#0"/>
    </vehicle>
    <vehicle id="15.1" depart="100.00">
        <route edges="480094740#2 43365536 43118737#0 43118737#1 43118737#2 4256531 230506722#0 230506722#1 49796163 43118738#0 43118738#1 43118738#2 43118739 23715312#0 23715312#1 23715312#2 23715315#0 23715315#1 230506725 43154948"/>
    </vehicle>
    <vehicle id="17.1" depart="100.00">
        <route edges="23715308#1 49796163 43118738#0 43118738#1 43118738#2 43118739 43118733#0 43118733#1 43118733#2 43118734 111971057#0 111971057#1 377367118"/>
    </vehicle>
    <vehicle id="18.1" depart="100.00">
        <route edges="480094741 483872216 480094740#0 480094740#1 480094740#2 43365536 43118737#0 43118737#1 43118737#2 4256531 230506722#0 230506722#1 49796163 43118738#0 43118738#1 43118738#2 43118739 43118733#0 43118733#1"/>
    </vehicle>
    <vehicle id="20.1" depart="100.00">
        <route edges="43365536 23715305#0 23715305#1 23715305#2 39093506#0 39093506#1 1008674254 483872217#0 483872217#1 483872217#2 230503369#0 230503369#1 230503369#2 -4256546 4256546 -230503369#2 -230503369#1"/>
    </vehicle>
    <vehicle id="22.1" depart="100.00">
        <route edges="-483872216 -480094741 480094741 483872216 480094740#0 480094740#1 480094740#2 43365536 43118737#0 43118737#1 43118737#2 4256531 23715307 267215482#0 267215482#1 515540039 498958807#0 498958807#1 195406732#0 195406732#1"/>
    </vehicle>
    <vehicle id="24.1" depart="100.00">
        <route edges="43118737#1 43118737#2 4256531 230506722#0 230506722#1 49796163 43118738#0 43118738#1 43118738#2 43118739 43118733#0 43118733#1 43118733#2 43118734 451852747 43365536 23715305#0 23715305#1 23715305#2 39093506#0 39093506#1 1008674254 -1008674254 -39093506#1 -39093506#0 23715304#0 23715304#1 23715304#2"/>
    </vehicle>
    <vehicle id="25.1" depart="100.00">
        <route edges="23715308#0 23715308#1 49796163 43118738#0 43118738#1 43118738#2 43118739 43118733#0 43118733#1 43118733#2 43118734 111971057#0 111971057#1"/>
    </vehicle>
    <vehicle id="26.1" depart="100.00">
        <route edges="230506725 43154948 230506728 43118734 451852747 43365536 43118737#0 43118737#1 43118737#2 4256531 23715307 267215482#0 267215482#1 515540039 498958807#0 498958807#1"/>
    </vehicle>
    <vehicle id="27.1" depart="100.00">
        <route edges="43118738#0 43118738#1 43118738#2 43118739 43118733#0"/>
    </vehicle>
    <vehicle id="28.1" depart="100.00">
        <route edges="111971057#0 111971057#1 377367118 480094740#0 480094740#1 480094740#2 43365536 43118737#0 43118737#1 43118737#2 4256531 230506722#0 230506722#1 49796163 43118738#0 43118738#1 43118738#2 43118739 23715312#0 23715312#1 23715312#2 23715315#0 23715315#1 230506725 43154948"/>
    </vehicle>
    <vehicle id="29.1" depart="100.00">
        <route edges="1065112866 23715308#0 23715308#1 49796163 43118738#0 43118738#1 43118738#2 43118739 43118733#0 43118733#1 43118733#2 43118734 451852747 43365536 23715305#0 23715305#1"/>
    </vehicle>
    <vehicle id="3.1" depart="100.00">
        <route edges="49796163 43118738#0 43118738#1 43118738#2 43118739 43118733#0 43118733#1 43118733#2 43118734 451852747 43365536 23715305#0 23715305#1 23715305#2 39093506#0 39093506#1 1008674254 483872217#0 483872217#1 483872217#2 230503369#0 230503369#1 230503369#2 -4256546"/>
    </vehicle>
    <vehicle id="30.1" depart="100.00">
        <route edges="817967122 575394078 522735403 1065112866 23715308#0 23715308#1 49796163 43118738#0 43118738#1 43118738#2 43118739 43118733#0 43118733#1 43118733#2 43118734"/>
    </vehicle>
    <vehicle id="32.1" depart="100.00">
        <route edges="483872216 480094740#0 480094740#1 480094740#2 43365536 43118737#0 43118737#1 43118737#2 4256531 230506722#0 230506722#1 49796163 4369049#0 4369049#1 4369049#2"/>
    </vehicle>
    <vehicle id="33.1" depart="100.00">
        <route edges="230503369#2 -4256546 4256546 -230503369#2 -230503369#1 -230503369#0"/>
    </vehicle>
    <vehicle id="34.1" depart="100.00">
        <route edges="23715304#2 4256531 230506722#0 230506722#1 49796163 43118738#0 43118738#1 43118738#2 43118739 43118733#0 43118733#1 43118733#2 43118734 451852747 43365536 23715305#0 23715305#1 23715305#2 39093506#0 39093506#1 1008674254 483872217#0 483872217#1 483872217#2 230503369#0 230503369#1 230503369#2"/>
    </vehicle>
    <vehicle id="37.1" depart="100.00">
        <route edges="43118738#0 43118738#1 43118738#2 43118739 43118733#0 43118733#1 43118733#2 43118734 451852747 43365536 23715305#0 23715305#1 23715305#2"/>
    </vehicle>
    <vehicle id="38.1" depart="100.00">
        <route edges="498185199#1 43154948 230506728 43118734 451852747 43365536 43118737#0 43118737#1 43118737#2 4256531 230506722#0 230506722#1 49796163 43118738#0 43118738#1 43118738#2 43118739 23715312#0 23715312#1"/>
    </vehicle>
    <vehicle id="39.1" depart="100.00">
        <route edges="230506725 43154948 230506728 43118734 451852747 43365536 23715305#0 23715305#1 23715305#2 39093506#0 39093506#1 1008674254 483872217#0 483872217#1 483872217#2 230503369#0"/>
    </vehicle>
    <vehicle id="4.1" depart="100.00">
        <route edges="23715315#0 23715315#1 230506725 43154948 230506728 43118734 451852747 43365536 23715305#0 23715305#1 23715305#2 39093506#0 39093506#1 1008674254 483872217#0 483872217#1 483872217#2 230503369#0 230503369#1 230503369#2 -4256546 4256546 -230503369#2 -230503369#1 -230503369#0"/>
    </vehicle>
    <vehicle id="40.1" depart="100.00">
        <route edges="4256546 -230503369#2 -230503369#1 -230503369#0 230503369#0 230503369#1"/>
    </vehicle>
    <vehicle id="41.1" depart="100.00">
        <route edges="43118733#1 43118733#2 43118734 451852747 43365536 43118737#0 43118737#1 43118737#2 4256531 230506722#0 230506722#1 49796163"/>
    </vehicle>
    <vehicle id="42.1" depart="100.00">
        <route edges="23715312#1 23715312#2 23715315#0 23715315#1 230506725 43154948 230506728 43118734 451852747 43365536 43118737#0 43118737#1 43118737#2 4256531 23715307 267215482#0 267215482#1 515540039 498958807#0 498958807#1 195406732#0"/>
    </vehicle>
    <vehicle id="43.1" depart="100.00">
        <route edges="817967122 575394078 522735403 1065112866 23715308#0 23715308#1 49796163 43118738#0 43118738#1 43118738#2 43118739 23715312#0 23715312#1 23715312#2 267213247#0 267213247#1"/>
    </vehicle>
    <vehicle id="47.1" depart="100.00">
        <route edges="-39093506#0 23715304#0 23715304#1 23715304#2 4256531 230506722#0 230506722#1 49796163 43118738#0 43118738#1 43118738#2 43118739 43118733#0 43118733#1 43118733#2 43118734 451852747 43365536 23715305#0 23715305#1"/>
    </vehicle>
    <vehicle id="48.1" depart="100.00">
        <route edges="817967122 575394078 522735403 1065112866 23715308#0 23715308#1 49796163 43118738#0 43118738#1 43118738#2 43118739 43118733#0 43118733#1 43118733#2 43118734 451852747 43365536 43118737#0 43118737#1 43118737#2 4256531 23715307 267215482#0"/>
    </vehicle>
    <vehicle id="49.1" depart="100.00">
        <route edges="522735403 1065112866 23715308#0 23715308#1 49796163 43118738#0 43118738#1 43118738#2 43118739 43118733#0 43118733#1 43118733#2 43118734 111971057#0 111971057#1 377367118 -483872216 -480094741 480094741 483872216"/>
    </vehicle>
    <vehicle id="51.1" depart="100.00">
        <route edges="43118738#2 43118739 43118733#0 43118733#1 43118733#2 43118734 451852747 43365536 43118737#0 43118737#1 43118737#2 4256531 23715307 267215482#0"/>
    </vehicle>
    <vehicle id="52.1" depart="100.00">
        <route edges="230506725 43154948 230506728 43118734"/>
    </vehicle>
    <vehicle id="55.1" depart="100.00">
        <route edges="483872217#2 230503369#0 230503369#1"/>
    </vehicle>
    <vehicle id="57.1" depart="100.00">
        <route edges="498185199#1 43154948 230506728 43118734 451852747 43365536 23715305#0 23715305#1 23715305#2 39093506#0 39093506#1 1008674254 483872217#0"/>
    </vehicle>
    <vehicle id="58.1" depart="100.00">
        <route edges="23715304#1 23715304#2 4256531 230506722#0 230506722#1 49796163 43118738#0 43118738#1 43118738#2 43118739 43118733#0 43118733#1 43118733#2 43118734"/>
    </vehicle>
    <vehicle id="59.1" depart="100.00">
        <route edges="43118734 451852747 43365536 23715305#0 23715305#1 23715305#2 39093506#0 39093506#1 1008674254"/>
    </vehicle>
    <vehicle id="60.1" depart="100.00">
        <route edges="4373934#2 43118739 43118733#0 43118733#1 43118733#2 43118734 451852747 43365536 43118737#0 43118737#1 43118737#2 4256531 23715307 267215482#0"/>
    </vehicle>
    <vehicle id="61.1" depart="100.00">
        <route edges="451852747 43365536 43118737#0 43118737#1 43118737#2 4256531 23715307 267215482#0"/>
    </vehicle>
    <vehicle id="62.1" depart="100.00">
        <route edges="-1008674254 -39093506#1 -39093506#0 23715304#0 23715304#1 23715304#2 4256531 230506722#0 230506722#1 49796163 43118738#0 43118738#1 43118738#2 43118739 23715312#0 23715312#1 23715312#2 23715315#0 23715315#1 230506730"/>
    </vehicle>
    <vehicle id="63.1" depart="100.00">
        <route edges="-195406732#0 -498958807#1 -498958807#0 498958807#0"/>
    </vehicle>
    <vehicle id="65.1" depart="100.00">
        <route edges="23715304#2 4256531 230506722#0 230506722#1 49796163 43118738#0 43118738#1 43118738#2 43118739 43118733#0 43118733#1 43118733#2 43118734 451852747 43365536 23715305#0 23715305#1 23715305#2 39093506#0 39093506#1 1008674254 -1008674254 -39093506#1 -39093506#0"/>
    </vehicle>
    <vehicle id="67.1" depart="100.00">
        <route edges="-483872216 -480094741 480094741 483872216 480094740#0 480094740#1 480094740#2 43365536 43118737#0 43118737#1 43118737#2 4256531 230506722#0 230506722#1 49796163 43118738#0 43118738#1 43118738#2 43118739 23715312#0 23715312#1 23715312#2 23715315#0 23715315#1"/>
    </vehicle>
    <vehicle id="68.1" depart="100.00">
        <route edges="-39093506#1 -39093506#0 23715304#0 23715304#1 23715304#2 4256531 230506722#0 230506722#1 49796163 4369049#0 4369049#1"/>
    </vehicle>
    <vehicle id="69.1" depart="100.00">
        <route edges="4373934#2 43118739 43118733#0 43118733#1 43118733#2 43118734 451852747 43365536 43118737#0 43118737#1 43118737#2 4256531 23715307 267215482#0 267215482#1 515540039 498958807#0 498958807#1 -498958807#1"/>
    </vehicle>
    <vehicle id="7.1" depart="100.00">
        <route edges="43118738#0 43118738#1 43118738#2 43118739 43118733#0 43118733#1 43118733#2 43118734 451852747 43365536 43118737#0 43118737#1 43118737#2 4256531 23715307 267215482#0 267215482#1"/>
    </vehicle>
    <vehicle id="70.1" depart="100.00">
        <route edges="267215482#0 267215482#1"/>
    </vehicle>
    <vehicle id="71.1" depart="100.00">
        <route edges="230506725 43154948 230506728 43118734 451852747 43365536 23715305#0 23715305#1 23715305#2 39093506#0 39093506#1 1008674254 483872217#0"/>
    </vehicle>
    <vehicle id="72.1" depart="100.00">
        <route edges="23715315#0 23715315#1 230506725 43154948 230506728 43118734 111971057#0 111971057#1"/>
    </vehicle>
    <vehicle id="73.1" depart="100.00">