<?xml version="1.0" encoding="UTF-8"?>

<!-- generated on 2025-03-21 19:48:18 by Eclipse SUMO netconvert Version 1.20.0
<configuration xmlns:xsi="http://www.w3.org/2001/XMLSchema-instance" xsi:noNamespaceSchemaLocation="http://sumo.dlr.de/xsd/netconvertConfiguration.xsd">

    <input>
        <osm-files value="trafalgar.osm.xml"/>
    </input>

    <output>
        <output-file value="trafalgar.net.xml"/>
    </output>

    <projection>
        <proj.utm value="true"/>
    </projection>

    <pedestrian>
        <sidewalks.guess value="true"/>
        <crossings.guess value="true"/>
    </pedestrian>

</configuration>
-->

<net version="1.20" junctionCornerDetail="5" walkingareas="true" limitTurnSpeed="5.50" xmlns:xsi="http://www.w3.org/2001/XMLSchema-instance" xsi:noNamespaceSchemaLocation="http://sumo.dlr.de/xsd/net_file.xsd">

    <location netOffset="-699267.62,-5710011.57" convBoundary="0.00,0.00,143.60,220.65" origBoundary="-0.128493,51.506008,-0.126510,51.507994" projParameter="+proj=utm +zone=30 +ellps=WGS84 +datum=WGS84 +units=m +no_defs"/>

    <type id="highway.footway" priority="1" numLanes="1" speed="2.78" allow="pedestrian" oneway="1" width="2.00"/>
    <type id="highway.pedestrian" priority="1" numLanes="1" speed="2.78" allow="pedestrian" oneway="1" width="2.00"/>
    <type id="highway.primary" priority="12" numLanes="2" speed="27.78" disallow="tram rail_urban rail rail_electric rail_fast ship container cable_car subway aircraft wheelchair scooter drone" oneway="0"/>
    <type id="highway.residential" priority="3" numLanes="1" speed="13.89" disallow="tram rail_urban rail rail_electric rail_fast ship container cable_car subway aircraft wheelchair scooter drone" oneway="0"/>
    <type id="highway.service" priority="1" numLanes="1" speed="5.56" allow="pedestrian delivery bicycle" oneway="0"/>
    <type id="highway.steps" priority="1" numLanes="1" speed="1.39" allow="pedestrian" oneway="1" width="2.00"/>
    <type id="highway.tertiary" priority="10" numLanes="1" speed="22.22" disallow="tram rail_urban rail rail_electric rail_fast ship container cable_car subway aircraft wheelchair scooter drone" oneway="0"/>
    <type id="railway.subway" priority="18" numLanes="1" speed="27.78" allow="subway" oneway="1"/>

    <edge id=":10658380996_w0" function="walkingarea">
        <lane id=":10658380996_w0_0" index="0" allow="pedestrian" speed="2.78" length="0.10" width="2.00" shape="62.34,150.54 61.06,149.00 62.09,150.72 62.19,150.66 62.22,150.64 62.25,150.61 62.29,150.58"/>
    </edge>
    <edge id=":10771270114_w0" function="walkingarea">
        <lane id=":10771270114_w0_0" index="0" allow="pedestrian" speed="2.78" length="4.34" width="2.00" shape="82.67,207.04 82.21,205.10 76.08,202.91 75.13,204.66 74.94,205.34 74.89,207.33"/>
    </edge>
    <edge id=":10771270115_w0" function="walkingarea">
        <lane id=":10771270115_w0_0" index="0" allow="pedestrian" speed="2.78" length="2.55" width="2.00" shape="77.16,207.40 77.22,205.40 76.29,205.24 75.89,205.05 75.52,204.80 75.19,204.49 74.90,204.10 73.22,205.19 74.28,206.39 74.90,206.81 75.59,207.12 76.34,207.32"/>
    </edge>
    <edge id=":10771270116_w0" function="walkingarea">
        <lane id=":10771270116_w0_0" index="0" allow="pedestrian" speed="2.78" length="0.86" width="2.00" shape="39.94,154.10 41.61,153.01 41.22,152.56 40.99,152.39 40.73,152.26 40.45,152.17 40.14,152.11 39.94,154.10"/>
    </edge>
    <edge id=":10771270117_w0" function="walkingarea">
        <lane id=":10771270117_w0_0" index="0" allow="pedestrian" speed="2.78" length="0.57" width="2.00" shape="76.74,205.54 77.69,203.78 76.03,204.90 76.24,205.19 76.33,205.28 76.43,205.36 76.56,205.44"/>
    </edge>
    <edge id=":10771270118_w0" function="walkingarea">
        <lane id=":10771270118_w0_0" index="0" allow="pedestrian" speed="2.78" length="0.10" width="2.00" shape="41.39,153.35 43.05,152.23 42.99,152.15 42.97,152.12 42.94,152.09 42.91,152.05 41.39,153.35"/>
    </edge>
    <edge id=":107770_0" function="internal">
        <lane id=":107770_0_0" index="0" disallow="pedestrian tram rail_urban rail rail_electric rail_fast ship container cable_car subway aircraft wheelchair scooter drone" speed="8.94" length="4.13" shape="67.81,132.96 66.94,132.44 66.35,132.04 65.75,131.68 64.82,131.28"/>
        <lane id=":107770_0_1" index="1" disallow="pedestrian tram rail_urban rail rail_electric rail_fast ship container cable_car subway aircraft wheelchair scooter drone" speed="8.94" length="4.13" shape="69.35,130.16 68.30,129.54 67.59,129.08 66.85,128.67 65.72,128.20"/>
        <lane id=":107770_0_2" index="2" disallow="pedestrian tram rail_urban rail rail_electric rail_fast ship container cable_car subway aircraft wheelchair scooter drone" speed="8.94" length="4.13" shape="70.90,127.36 69.66,126.64 68.82,126.12 67.95,125.67 66.63,125.12"/>
    </edge>
    <edge id=":107770_c0" function="crossing" crossingEdges="43118737#1">
        <lane id=":107770_c0_0" index="0" allow="pedestrian" speed="2.78" length="9.60" width="4.00" shape="69.91,124.99 65.29,133.40" outlineShape="71.67,125.95 67.04,134.37 63.03,135.08 62.86,135.17 64.77,135.74 66.08,136.12 66.99,134.45 63.53,132.44 68.16,124.03 71.67,125.95"/>
    </edge>
    <edge id=":107770_w0" function="walkingarea">
        <lane id=":107770_w0_0" index="0" allow="pedestrian" speed="2.78" length="2.22" width="4.00" shape="64.44,132.85 63.74,134.72 62.86,135.17 64.77,135.74 66.08,136.12 67.04,134.37 66.45,134.02 66.03,133.74 65.69,133.49 65.34,133.27 64.89,133.04"/>
    </edge>
    <edge id=":107770_w1" function="walkingarea">
        <lane id=":107770_w1_0" index="0" allow="pedestrian" speed="2.78" length="2.87" width="4.00" shape="68.16,124.03 71.67,125.95 68.21,124.22 66.29,123.64"/>
    </edge>
    <edge id=":107773_0" function="internal">
        <lane id=":107773_0_0" index="0" disallow="pedestrian tram rail_urban rail rail_electric rail_fast ship container cable_car subway aircraft wheelchair scooter drone" speed="8.94" length="2.32" shape="74.61,164.33 76.70,163.71"/>
        <lane id=":107773_0_1" index="1" disallow="pedestrian tram rail_urban rail rail_electric rail_fast ship container cable_car subway aircraft wheelchair scooter drone" speed="8.94" length="2.32" shape="76.67,166.78 78.30,165.38"/>
        <lane id=":107773_0_2" index="2" disallow="pedestrian tram rail_urban rail rail_electric rail_fast ship container cable_car subway aircraft wheelchair scooter drone" speed="8.94" length="2.32" shape="78.74,169.23 80.76,167.54"/>
    </edge>
    <edge id=":107773_c0" function="crossing" crossingEdges="43118733#2">
        <lane id=":107773_c0_0" index="0" allow="pedestrian" speed="2.78" length="8.22" width="4.00" shape="74.20,164.27 80.09,170.01" outlineShape="75.53,162.77 80.45,167.58 81.32,166.85 81.48,168.58 78.69,171.44 72.80,165.70 75.60,162.84 75.54,162.59 73.98,161.34 75.79,160.29 74.26,161.57 72.29,161.58 73.58,163.11 73.07,164.81"/>
    </edge>
    <edge id=":107773_w0" function="walkingarea">
        <lane id=":107773_w0_0" index="0" allow="pedestrian" speed="2.78" length="2.56" width="4.00" shape="79.78,168.14 81.32,166.85 81.48,168.58 78.69,171.44"/>
    </edge>
    <edge id=":107773_w1" function="walkingarea">
        <lane id=":107773_w1_0" index="0" allow="pedestrian" speed="2.78" length="2.26" width="4.00" shape="72.80,165.70 75.60,162.84 75.54,162.59 73.98,161.34 75.79,160.29 74.26,161.57 72.29,161.58 73.58,163.11"/>
    </edge>
    <edge id=":107774_0" function="internal">
        <lane id=":107774_0_0" index="0" disallow="pedestrian tram rail_urban rail rail_electric rail_fast ship container cable_car subway aircraft wheelchair scooter drone" speed="8.94" length="17.93" shape="36.59,152.97 38.75,157.26 40.84,159.93 43.67,161.84 48.06,163.86"/>
        <lane id=":107774_0_1" index="1" disallow="pedestrian tram rail_urban rail rail_electric rail_fast ship container cable_car subway aircraft wheelchair scooter drone" speed="8.94" length="17.93" shape="34.07,155.15 36.46,159.79 38.81,162.62 41.96,164.63 46.78,166.80"/>
        <lane id=":107774_0_2" index="2" disallow="pedestrian tram rail_urban rail rail_electric rail_fast ship container cable_car subway aircraft wheelchair scooter drone" speed="8.94" length="17.93" shape="31.54,157.32 34.16,162.31 36.77,165.31 40.26,167.41 45.50,169.73"/>
    </edge>
    <edge id=":107774_3" function="internal">
        <lane id=":107774_3_0" index="0" disallow="pedestrian tram rail_urban rail rail_electric rail_fast ship container cable_car subway aircraft wheelchair scooter drone" speed="8.94" length="20.05" shape="26.41,162.84 32.30,164.09 36.22,165.42 40.00,167.19 45.50,169.73"/>
        <lane id=":107774_3_1" index="1" disallow="pedestrian tram rail_urban rail rail_electric rail_fast ship container cable_car subway aircraft wheelchair scooter drone" speed="8.94" length="20.05" shape="25.80,165.98 31.49,167.19 35.26,168.49 38.91,170.21 44.23,172.67"/>
    </edge>
    <edge id=":107774_c0" function="crossing" crossingEdges="43118738#2">
        <lane id=":107774_c0_0" index="0" allow="pedestrian" speed="2.78" length="9.78" width="4.00" shape="30.92,159.80 38.88,154.13" outlineShape="29.76,158.17 37.72,152.50 39.43,155.17 39.86,155.88 40.04,155.76 32.08,161.43 29.71,161.17 30.20,160.91 30.57,160.22 30.53,159.24 29.76,158.17"/>
    </edge>
    <edge id=":107774_w0" function="walkingarea">
        <lane id=":107774_w0_0" index="0" allow="pedestrian" speed="2.78" length="10.05" width="4.00" shape="48.70,162.40 49.49,160.56 39.55,150.79 37.74,151.63 37.72,152.50 39.43,155.17 40.67,157.24 42.00,158.76 43.62,159.96 45.78,161.10"/>
    </edge>
    <edge id=":107774_w1" function="walkingarea">
        <lane id=":107774_w1_0" index="0" allow="pedestrian" speed="2.78" length="4.04" width="4.00" shape="29.76,158.17 27.08,159.30 26.73,161.27 28.26,161.43 29.43,161.31 30.20,160.91 30.57,160.22 30.53,159.24"/>
    </edge>
    <edge id=":1139318698_0" function="internal">
        <lane id=":1139318698_0_0" index="0" disallow="pedestrian tram rail_urban rail rail_electric rail_fast ship container cable_car subway aircraft wheelchair scooter drone" speed="8.94" length="3.93" shape="131.56,8.75 128.05,6.98"/>
    </edge>
    <edge id=":1139318698_1" function="internal">
        <lane id=":1139318698_1_0" index="0" disallow="pedestrian tram rail_urban rail rail_electric rail_fast ship container cable_car subway aircraft wheelchair scooter drone" speed="8.94" length="4.01" shape="129.46,4.10 133.03,5.91"/>
    </edge>
    <edge id=":1139318698_c0" function="crossing" crossingEdges="230503369#2 -230503369#2">
        <lane id=":1139318698_c0_0" index="0" allow="pedestrian" speed="2.78" length="6.40" width="4.00" shape="132.00,3.56 129.04,9.24" outlineShape="133.77,4.49 130.82,10.16 126.49,10.16 129.89,11.94 130.77,10.25 127.27,8.32 130.23,2.64 133.77,4.49 134.70,2.71 131.13,0.91"/>
    </edge>
    <edge id=":1139318698_w0" function="walkingarea">
        <lane id=":1139318698_w0_0" index="0" allow="pedestrian" speed="2.78" length="2.74" width="4.00" shape="127.35,8.41 126.47,10.21 129.89,11.94 130.82,10.16 127.27,8.32"/>
    </edge>
    <edge id=":1139318698_w1" function="walkingarea">
        <lane id=":1139318698_w1_0" index="0" allow="pedestrian" speed="2.78" length="2.86" width="4.00" shape="130.23,2.64 133.77,4.49 134.70,2.71 131.04,0.87 130.16,2.66"/>
    </edge>
    <edge id=":1139318714_0" function="internal">
        <lane id=":1139318714_0_0" index="0" disallow="pedestrian tram rail_urban rail rail_electric rail_fast ship container cable_car subway aircraft wheelchair scooter drone" speed="3.65" length="4.67" shape="120.31,3.21 119.58,1.97 119.56,1.08 120.27,0.53 121.70,0.33"/>
    </edge>
    <edge id=":1139318714_1" function="internal">
        <lane id=":1139318714_1_0" index="0" disallow="pedestrian tram rail_urban rail rail_electric rail_fast ship container cable_car subway aircraft wheelchair scooter drone" speed="7.13" length="11.49" shape="113.20,5.74 114.96,2.44 116.96,0.43 119.21,-0.27 121.70,0.33"/>
    </edge>
    <edge id=":1139318714_c0" function="crossing" crossingEdges="230503369#0 -230503369#0">
        <lane id=":1139318714_c0_0" index="0" allow="pedestrian" speed="2.78" length="6.40" width="4.00" shape="120.58,-1.98 117.82,3.79" outlineShape="122.39,-1.12 119.62,4.65 119.19,4.66 118.79,5.02 118.43,5.61 118.22,6.09 116.01,2.93 118.78,-2.85 118.31,-1.86 120.22,-1.84 122.39,-1.12"/>
    </edge>
    <edge id=":1139318714_w0" function="walkingarea">
        <lane id=":1139318714_w0_0" index="0" allow="pedestrian" speed="2.78" length="2.24" width="4.00" shape="118.76,6.46 119.62,4.65 119.19,4.66 118.79,5.02 118.43,5.61 118.12,6.32 117.85,7.01"/>
    </edge>
    <edge id=":1139318714_w1" function="walkingarea">
        <lane id=":1139318714_w1_0" index="0" allow="pedestrian" speed="2.78" length="9.30" width="4.00" shape="122.39,-1.12 123.25,-2.92 120.48,-3.87 117.93,-3.95 115.59,-3.17 113.47,-1.52 111.56,0.99 109.87,4.36 111.72,5.13 113.11,2.32 114.65,0.22 116.35,-1.17 118.21,-1.86 120.22,-1.84"/>
    </edge>
    <edge id=":12394151339_w0" function="walkingarea">
        <lane id=":12394151339_w0_0" index="0" allow="pedestrian" speed="2.78" length="3.30" width="2.00" shape="107.70,160.13 106.84,158.32 105.94,158.59 105.49,158.59 105.04,158.52 104.58,158.35 104.13,158.11 103.06,159.79 103.73,160.41 103.94,160.77 104.07,161.17 104.11,161.61 104.07,162.08 106.04,162.42 106.35,161.44 106.59,161.03 106.90,160.68 107.27,160.38"/>
    </edge>
    <edge id=":12394151340_w0" function="walkingarea">
        <lane id=":12394151340_w0_0" index="0" allow="pedestrian" speed="2.78" length="4.32" width="2.00" shape="104.89,169.16 102.92,168.83 102.52,169.66 102.15,169.97 101.66,170.20 101.05,170.36 100.33,170.44 100.45,172.44 101.21,172.54 101.42,172.72 101.51,172.97 101.49,173.31 101.34,173.72 103.18,174.53 104.02,172.61 104.28,171.92 104.49,171.21 104.68,170.34"/>
    </edge>
    <edge id=":12394151344_w0" function="walkingarea">
        <lane id=":12394151344_w0_0" index="0" allow="pedestrian" speed="2.78" length="1.84" width="2.00" shape="116.37,195.37 114.90,196.72 114.95,198.72"/>
    </edge>
    <edge id=":12394151350_w0" function="walkingarea">
        <lane id=":12394151350_w0_0" index="0" allow="pedestrian" speed="2.78" length="2.25" width="2.00" shape="106.96,212.71 108.41,211.34 108.49,209.23 107.13,207.76 103.46,211.15 104.81,212.62 105.54,212.18 105.90,212.14 106.26,212.21 106.61,212.40"/>
    </edge>
    <edge id=":12394194965_w0" function="walkingarea">
        <lane id=":12394194965_w0_0" index="0" allow="pedestrian" speed="2.78" length="3.77" width="2.00" shape="79.90,124.60 81.87,124.25 81.64,122.72 81.63,122.18 81.69,121.63 81.82,120.99 82.03,120.13 80.09,119.66 78.24,120.92 77.98,122.90"/>
    </edge>
    <edge id=":12394194971_w0" function="walkingarea">
        <lane id=":12394194971_w0_0" index="0" allow="pedestrian" speed="2.78" length="1.97" width="2.00" shape="98.64,147.88 100.58,147.38 100.51,147.15 98.60,147.74"/>
    </edge>
    <edge id=":1239525705_0" function="internal">
        <lane id=":1239525705_0_0" index="0" disallow="pedestrian tram rail_urban rail rail_electric rail_fast ship container cable_car subway aircraft wheelchair scooter drone" speed="8.94" length="13.81" shape="29.41,105.46 27.99,101.62 26.85,99.06 25.46,96.61 23.29,93.14"/>
    </edge>
    <edge id=":1239525705_1" function="internal">
        <lane id=":1239525705_1_0" index="0" disallow="pedestrian tram rail_urban rail rail_electric rail_fast ship container cable_car subway aircraft wheelchair scooter drone" speed="8.94" length="11.16" shape="29.41,105.46 28.36,101.89 27.97,98.91 28.24,96.52 29.17,94.72"/>
    </edge>
    <edge id=":1239525705_2" function="internal">
        <lane id=":1239525705_2_0" index="0" disallow="pedestrian tram rail_urban rail rail_electric rail_fast ship container cable_car subway aircraft wheelchair scooter drone" speed="6.43" length="10.89" shape="31.62,96.78 29.80,98.10 27.81,97.93 25.64,96.28 23.29,93.14"/>
    </edge>
    <edge id=":1239525705_3" function="internal">
        <lane id=":1239525705_3_0" index="0" disallow="pedestrian tram rail_urban rail rail_electric rail_fast ship container cable_car subway aircraft wheelchair scooter drone" speed="3.65" length="4.67" shape="31.62,96.78 30.23,97.18 29.36,96.98 29.01,96.16 29.17,94.72"/>
    </edge>
    <edge id=":1239525705_c0" function="crossing" crossingEdges="515540039">
        <lane id=":1239525705_c0_0" index="0" allow="pedestrian" speed="2.78" length="3.20" width="4.00" shape="30.24,103.04 27.23,104.12" outlineShape="30.92,104.92 27.91,106.00 26.92,103.31 26.51,102.26 31.11,100.61 30.79,101.46 30.59,102.63 30.64,103.79 30.92,104.92"/>
    </edge>
    <edge id=":1239525705_c1" function="crossing" crossingEdges="498958807#0 -498958807#0">
        <lane id=":1239525705_c1_0" index="0" allow="pedestrian" speed="2.78" length="6.40" width="4.00" shape="26.66,95.23 31.56,99.34" outlineShape="27.94,93.69 32.84,97.81 31.92,99.04 31.24,100.26 30.84,101.34 30.27,100.87 25.37,96.76 25.74,93.67 25.86,93.80 26.43,94.16 26.96,94.27 27.47,94.11 27.94,93.69"/>
    </edge>
    <edge id=":1239525705_c2" function="crossing" crossingEdges="522735404">
        <lane id=":1239525705_c2_0" index="0" allow="pedestrian" speed="2.78" length="3.20" width="4.00" shape="23.00,95.68 25.71,93.98" outlineShape="21.94,93.99 24.65,92.29 27.77,93.90 26.24,92.61 24.72,92.30 26.77,95.68 24.06,97.37 23.46,96.41 21.94,93.99"/>
    </edge>
    <edge id=":1239525705_w0" function="walkingarea">
        <lane id=":1239525705_w0_0" index="0" allow="pedestrian" speed="2.78" length="8.32" width="4.00" shape="21.94,93.99 20.24,95.05 26.02,106.68 27.91,106.00 26.92,103.31 26.14,101.34 25.41,99.76 24.56,98.22 23.46,96.41"/>
    </edge>
    <edge id=":1239525705_w1" function="walkingarea">
        <lane id=":1239525705_w1_0" index="0" allow="pedestrian" speed="2.78" length="3.95" width="4.00" shape="30.92,104.92 34.38,99.09 32.84,97.81 31.92,99.04 31.24,100.26 30.79,101.46 30.59,102.63 30.64,103.79"/>
    </edge>
    <edge id=":1239525705_w2" function="walkingarea">
        <lane id=":1239525705_w2_0" index="0" allow="pedestrian" speed="2.78" length="1.68" width="4.00" shape="27.94,93.69 27.77,93.90 26.24,92.61 24.65,92.29 25.27,93.17 25.86,93.80 26.43,94.16 26.96,94.27 27.47,94.11"/>
    </edge>
    <edge id=":1239525734_0" function="internal">
        <lane id=":1239525734_0_0" index="0" disallow="pedestrian tram rail_urban rail rail_electric rail_fast ship container cable_car subway aircraft wheelchair scooter drone" speed="8.94" length="2.40" shape="43.70,131.59 46.77,129.98"/>
        <lane id=":1239525734_0_1" index="1" disallow="pedestrian tram rail_urban rail rail_electric rail_fast ship container cable_car subway aircraft wheelchair scooter drone" speed="8.94" length="2.40" shape="42.61,128.55 44.67,127.47"/>
        <lane id=":1239525734_0_2" index="2" disallow="pedestrian tram rail_urban rail rail_electric rail_fast ship container cable_car subway aircraft wheelchair scooter drone" speed="8.94" length="2.40" shape="41.51,125.51 42.75,124.86"/>
    </edge>
    <edge id=":1239525734_w0" function="walkingarea">
        <lane id=":1239525734_w0_0" index="0" allow="pedestrian" speed="2.78" length="4.38" width="2.00" shape="48.00,131.14 48.94,132.90 45.06,134.94 44.13,133.17"/>
    </edge>
    <edge id=":1239525738_w0" function="walkingarea">
        <lane id=":1239525738_w0_0" index="0" allow="pedestrian" speed="2.78" length="3.96" width="4.00" shape="54.27,112.73 54.52,110.75 52.40,110.45 50.94,110.20 49.58,109.89 48.63,109.52 48.38,109.04 47.55,110.91 48.27,111.39 48.48,111.70 48.59,112.06 48.60,112.47 48.51,112.93 52.29,114.11 52.74,113.23 53.04,112.95 53.40,112.77 53.81,112.70"/>
    </edge>
    <edge id=":1239525762_0" function="internal">
        <lane id=":1239525762_0_0" index="0" disallow="pedestrian tram rail_urban rail rail_electric rail_fast ship container cable_car subway aircraft wheelchair scooter drone" speed="8.94" length="5.25" shape="97.19,214.29 98.05,209.02"/>
        <lane id=":1239525762_0_1" index="1" disallow="pedestrian tram rail_urban rail rail_electric rail_fast ship container cable_car subway aircraft wheelchair scooter drone" speed="8.94" length="5.25" shape="100.37,214.70 101.19,209.61"/>
    </edge>
    <edge id=":1239525762_c0" function="crossing" crossingEdges="1065112863#1">
        <lane id=":1239525762_c0_0" index="0" allow="pedestrian" speed="2.78" length="6.40" width="4.00" shape="96.11,210.69 102.40,211.87" outlineShape="96.48,208.73 102.77,209.90 102.33,213.37 102.42,211.37 102.77,209.90 102.03,213.84 95.74,212.66 96.38,208.71 94.51,208.36 95.14,210.54 94.80,212.48"/>
    </edge>
    <edge id=":1239525762_w0" function="walkingarea">
        <lane id=":1239525762_w0_0" index="0" allow="pedestrian" speed="2.78" length="0.51" width="4.00" shape="102.33,213.37 102.42,211.37 102.77,209.90 102.03,213.84"/>
    </edge>
    <edge id=":1239525762_w1" function="walkingarea">
        <lane id=":1239525762_w1_0" index="0" allow="pedestrian" speed="2.78" length="3.03" width="4.00" shape="95.74,212.66 96.48,208.73 94.51,208.36 95.14,210.54 94.80,212.51 93.62,213.82 95.61,214.08"/>
    </edge>
    <edge id=":1239525771_0" function="internal">
        <lane id=":1239525771_0_0" index="0" disallow="pedestrian tram rail_urban rail rail_electric rail_fast ship container cable_car subway aircraft wheelchair scooter drone" speed="8.64" length="0.95" shape="74.73,163.87 73.73,165.08"/>
        <lane id=":1239525771_0_1" index="1" disallow="pedestrian tram rail_urban rail rail_electric rail_fast ship container cable_car subway aircraft wheelchair scooter drone" speed="8.94" length="0.95" shape="75.63,167.50 75.79,167.52"/>
        <lane id=":1239525771_0_2" index="2" disallow="pedestrian tram rail_urban rail rail_electric rail_fast ship container cable_car subway aircraft wheelchair scooter drone" speed="8.94" length="0.95" shape="76.95,170.65 77.23,170.46 77.42,170.33 77.60,170.18 77.86,169.97"/>
    </edge>
    <edge id=":1239525771_w0" function="walkingarea">
        <lane id=":1239525771_w0_0" index="0" allow="pedestrian" speed="2.78" length="2.88" width="2.00" shape="72.70,163.85 71.41,162.32 73.69,160.07 74.39,161.94"/>
    </edge>
    <edge id=":12409605767_w0" function="walkingarea">
        <lane id=":12409605767_w0_0" index="0" allow="pedestrian" speed="2.78" length="3.43" width="2.00" shape="121.07,9.28 119.27,8.43 117.23,9.17 116.42,11.00 117.19,12.98 119.02,13.79"/>
    </edge>
    <edge id=":12409605768_w0" function="walkingarea">
        <lane id=":12409605768_w0_0" index="0" allow="pedestrian" speed="2.78" length="2.19" width="2.00" shape="111.05,8.88 111.71,6.99 110.81,8.78 110.90,8.82 110.93,8.84 110.96,8.85 111.00,8.86"/>
    </edge>
    <edge id=":12409605769_w0" function="walkingarea">
        <lane id=":12409605769_w0_0" index="0" allow="pedestrian" speed="2.78" length="1.18" width="2.00" shape="109.19,7.97 110.09,6.18 110.03,6.15 110.01,6.14 109.99,6.13 109.96,6.12 109.19,7.97"/>
    </edge>
    <edge id=":12409605770_w0" function="walkingarea">
        <lane id=":12409605770_w0_0" index="0" allow="pedestrian" speed="2.78" length="1.88" width="2.00" shape="102.51,5.35 103.24,3.49 103.00,3.40 102.36,5.30"/>
    </edge>
    <edge id=":12409605771_w0" function="walkingarea">
        <lane id=":12409605771_w0_0" index="0" allow="pedestrian" speed="2.78" length="6.72" width="2.00" shape="107.45,8.95 109.33,9.64 110.14,8.35 110.87,6.48 102.39,3.16 101.66,5.02"/>
    </edge>
    <edge id=":12409605772_w0" function="walkingarea">
        <lane id=":12409605772_w0_0" index="0" allow="pedestrian" speed="2.78" length="2.63" width="2.00" shape="102.33,5.28 102.96,3.39 98.55,5.64 100.46,6.24"/>
    </edge>
    <edge id=":12409605773_w0" function="walkingarea">
        <lane id=":12409605773_w0_0" index="0" allow="pedestrian" speed="2.78" length="2.63" width="2.00" shape="104.00,5.86 104.65,3.97 99.90,2.36 99.27,4.26 100.19,6.15 102.08,6.81"/>
    </edge>
    <edge id=":12409642402_0" function="internal">
        <lane id=":12409642402_0_0" index="0" allow="pedestrian delivery bicycle" speed="5.56" length="2.73" shape="96.09,73.92 93.46,73.22"/>
    </edge>
    <edge id=":12409642402_1" function="internal">
        <lane id=":12409642402_1_0" index="0" allow="pedestrian delivery bicycle" speed="3.65" length="1.44" shape="96.09,73.92 95.14,72.84"/>
    </edge>
    <edge id=":12409642402_4" function="internal">
        <lane id=":12409642402_4_0" index="0" allow="pedestrian delivery bicycle" speed="3.65" length="3.23" shape="95.14,72.84 94.96,71.96 95.55,71.29 96.92,70.83"/>
    </edge>
    <edge id=":12409642402_2" function="internal">
        <lane id=":12409642402_2_0" index="0" allow="pedestrian delivery bicycle" speed="5.56" length="2.73" shape="94.28,70.12 96.92,70.83"/>
    </edge>
    <edge id=":12409642402_3" function="internal">
        <lane id=":12409642402_3_0" index="0" allow="pedestrian delivery bicycle" speed="3.65" length="1.44" shape="94.28,70.12 95.23,71.21"/>
    </edge>
    <edge id=":12409642402_5" function="internal">
        <lane id=":12409642402_5_0" index="0" allow="pedestrian delivery bicycle" speed="3.65" length="3.23" shape="95.23,71.21 95.41,72.08 94.82,72.75 93.46,73.22"/>
    </edge>
    <edge id=":12409642402_w0" function="walkingarea">
        <lane id=":12409642402_w0_0" index="0" allow="pedestrian" speed="2.78" length="3.40" width="6.40" shape="95.68,75.47 97.33,69.28 96.28,67.45 94.35,66.92 92.45,67.98 90.80,74.16 91.84,75.99 93.77,76.53"/>
    </edge>
    <edge id=":12409642404_w0" function="walkingarea">
        <lane id=":12409642404_w0_0" index="0" allow="pedestrian" speed="2.78" length="3.50" width="2.00" shape="122.63,9.49 123.52,7.70 122.73,5.63 120.91,4.82 118.84,9.33 120.65,10.18 121.16,9.50 121.47,9.33 121.82,9.27 122.21,9.32"/>
    </edge>
    <edge id=":12409656099_w0" function="walkingarea">
        <lane id=":12409656099_w0_0" index="0" allow="pedestrian" speed="2.78" length="2.62" width="2.00" shape="33.42,86.61 34.92,85.24 34.52,84.22 34.45,83.63 34.47,82.98 34.58,82.27 34.78,81.50 32.87,80.91 32.51,81.59 32.28,81.71 32.03,81.70 31.74,81.54 31.42,81.24 29.94,82.59 31.32,84.01 31.81,84.50 32.28,85.01 32.79,85.67"/>
    </edge>
    <edge id=":12409656701_w0" function="walkingarea">
        <lane id=":12409656701_w0_0" index="0" allow="pedestrian" speed="2.78" length="3.59" width="2.00" shape="40.61,52.79 42.54,52.27 43.57,49.84 42.44,48.19 40.27,47.86 38.70,49.10 39.64,50.34 39.93,50.81 40.16,51.31 40.37,51.94"/>
    </edge>
    <edge id=":12409656704_w0" function="walkingarea">
        <lane id=":12409656704_w0_0" index="0" allow="pedestrian" speed="2.78" length="4.03" width="2.00" shape="26.95,45.08 27.44,43.14 26.68,42.78 26.45,42.50 26.32,42.17 26.30,41.78 26.38,41.32 24.45,40.80 23.15,45.63 25.08,46.15 25.46,45.39 25.74,45.16 26.08,45.03 26.49,45.01"/>
    </edge>
    <edge id=":12409656705_w0" function="walkingarea">
        <lane id=":12409656705_w0_0" index="0" allow="pedestrian" speed="2.78" length="0.50" width="2.00" shape="43.28,49.41 41.34,48.95 42.47,50.60 42.91,50.26 43.04,50.11 43.13,49.94 43.21,49.71"/>
    </edge>
    <edge id=":12409656706_w0" function="walkingarea">
        <lane id=":12409656706_w0_0" index="0" allow="pedestrian" speed="2.78" length="0.66" width="2.00" shape="45.35,40.17 43.36,39.96 43.28,40.70 43.24,40.96 43.19,41.22 43.12,41.53 43.01,41.95 44.96,42.42 45.15,41.60 45.21,41.31 45.25,41.01 45.30,40.65"/>
    </edge>
    <edge id=":12409656707_0" function="internal">
        <lane id=":12409656707_0_0" index="0" disallow="pedestrian tram rail_urban rail rail_electric rail_fast ship container cable_car subway aircraft wheelchair scooter drone" speed="8.94" length="1.06" shape="41.78,44.62 40.75,44.36"/>
    </edge>
    <edge id=":12409656707_1" function="internal">
        <lane id=":12409656707_1_0" index="0" disallow="pedestrian tram rail_urban rail rail_electric rail_fast ship container cable_car subway aircraft wheelchair scooter drone" speed="8.94" length="2.41" shape="41.57,41.27 43.90,41.88"/>
    </edge>
    <edge id=":12409656707_c0" function="crossing" crossingEdges="-195406732#0 195406732#0">
        <lane id=":12409656707_c0_0" index="0" allow="pedestrian" speed="2.78" length="6.53" width="4.00" shape="42.38,39.82 39.44,45.64" outlineShape="44.21,40.63 41.32,46.35 41.37,46.17 41.22,46.55 37.65,44.74 40.59,38.91 44.16,40.72"/>
    </edge>
    <edge id=":12409656707_w0" function="walkingarea">
        <lane id=":12409656707_w0_0" index="0" allow="pedestrian" speed="2.78" length="2.58" width="4.00" shape="40.35,45.91 39.84,47.85 41.26,49.27 43.21,49.74 40.85,48.10 41.37,46.17 41.22,46.55 37.65,44.74"/>
    </edge>
    <edge id=":12409656707_w1" function="walkingarea">
        <lane id=":12409656707_w1_0" index="0" allow="pedestrian" speed="2.78" length="1.80" width="4.00" shape="40.59,38.91 44.16,40.72 44.31,40.33 44.83,38.40 45.57,39.90 43.62,39.43 42.48,37.79 41.97,39.72"/>
    </edge>
    <edge id=":1274040745_0" function="internal">
        <lane id=":1274040745_0_0" index="0" disallow="pedestrian tram rail_urban rail rail_electric rail_fast ship container cable_car subway aircraft wheelchair scooter drone" speed="8.25" length="8.69" shape="86.99,168.01 86.12,166.56 84.73,164.14 83.52,161.72 83.20,160.25"/>
        <lane id=":1274040745_0_1" index="1" disallow="pedestrian tram rail_urban rail rail_electric rail_fast ship container cable_car subway aircraft wheelchair scooter drone" speed="6.66" length="5.45" shape="89.49,165.96 86.03,161.75"/>
    </edge>
    <edge id=":1274040745_2" function="internal">