<?xml version="1.0" encoding="UTF-8"?>

<!-- generated on 2025-03-21 19:56:10.560880 by randomTrips.py v1_20_0+0002-343658e7c64
<configuration>
    <net-file value="trafalgar.net.xml"/>
    <route-file value="vehicles.rou.xml"/>
    <flows value="100"/>
</configuration>
-->

<routes xmlns:xsi="http://www.w3.org/2001/XMLSchema-instance" xsi:noNamespaceSchemaLocation="http://sumo.dlr.de/xsd/routes_file.xsd">
    <flow id="0" begin="0" end="3600" period="100" from="43118737#2" to="-230503369#0"/>
    <flow id="1" begin="0" end="3600" period="100" from="230506728" to="195406732#0"/>
    <flow id="2" begin="0" end="3600" period="100" from="4369049#1" to="43118737#2"/>
    <flow id="3" begin="0" end="3600" period="100" from="49796163" to="-4256546"/>
    <flow id="4" begin="0" end="3600" period="100" from="23715315#0" to="-230503369#0"/>
    <flow id="5" begin="0" end="3600" period="100" from="230503369#1" to="267213247#0"/>
    <flow id="6" begin="0" end="3600" period="100" from="-195406732#1" to="111971057#0"/>
    <flow id="7" begin="0" end="3600" period="100" from="43118738#0" to="267215482#1"/>
    <flow id="8" begin="0" end="3600" period="100" from="230503369#1" to="4256531"/>
    <flow id="9" begin="0" end="3600" period="100" from="480094740#2" to="-1008674254"/>
    <flow id="10" begin="0" end="3600" period="100" from="480094740#1" to="43118738#1"/>
    <flow id="11" begin="0" end="3600" period="100" from="23715305#1" to="1008674254"/>
    <flow id="12" begin="0" end="3600" period="100" from="515540039" to="23715304#0"/>
    <flow id="13" begin="0" end="3600" period="100" from="-498958807#0" to="-480094741"/>
    <flow id="14" begin="0" end="3600" period="100" from="483872216" to="43118733#0"/>
    <flow id="15" begin="0" end="3600" period="100" from="480094740#2" to="43154948"/>
    <flow id="16" begin="0" end="3600" period="100" from="39093506#1" to="522735403"/>
    <flow id="17" begin="0" end="3600" period="100" from="23715308#1" to="377367118"/>
    <flow id="18" begin="0" end="3600" period="100" from="480094741" to="43118733#1"/>
    <flow id="19" begin="0" end="3600" period="100" from="483872217#0" to="39093506#1"/>
    <flow id="20" begin="0" end="3600" period="100" from="43365536" to="-230503369#1"/>
    <flow id="21" begin="0" end="3600" period="100" from="230503369#2" to="230506722#1"/>
    <flow id="22" begin="0" end="3600" period="100" from="-483872216" to="195406732#1"/>
    <flow id="23" begin="0" end="3600" period="100" from="-498958807#0" to="230506722#0"/>
    <flow id="24" begin="0" end="3600" period="100" from="43118737#1" to="23715304#2"/>
    <flow id="25" begin="0" end="3600" period="100" from="23715308#0" to="111971057#1"/>
    <flow id="26" begin="0" end="3600" period="100" from="230506725" to="498958807#1"/>
    <flow id="27" begin="0" end="3600" period="100" from="43118738#0" to="43118733#0"/>
    <flow id="28" begin="0" end="3600" period="100" from="111971057#0" to="43154948"/>
    <flow id="29" begin="0" end="3600" period="100" from="1065112866" to="23715305#1"/>
    <flow id="30" begin="0" end="3600" period="100" from="817967122" to="43118734"/>
    <flow id="31" begin="0" end="3600" period="100" from="4256546" to="43118738#0"/>
    <flow id="32" begin="0" end="3600" period="100" from="483872216" to="4369049#2"/>
    <flow id="33" begin="0" end="3600" period="100" from="230503369#2" to="-230503369#0"/>
    <flow id="34" begin="0" end="3600" period="100" from="23715304#2" to="230503369#2"/>
    <flow id="35" begin="0" end="3600" period="100" from="230503369#0" to="498958807#2"/>
    <flow id="36" begin="0" end="3600" period="100" from="483872217#2" to="230506728"/>
    <flow id="37" begin="0" end="3600" period="100" from="43118738#0" to="23715305#2"/>
    <flow id="38" begin="0" end="3600" period="100" from="498185199#1" to="23715312#1"/>
    <flow id="39" begin="0" end="3600" period="100" from="230506725" to="230503369#0"/>
    <flow id="40" begin="0" end="3600" period="100" from="4256546" to="230503369#1"/>
    <flow id="41" begin="0" end="3600" period="100" from="43118733#1" to="49796163"/>
    <flow id="42" begin="0" end="3600" period="100" from="23715312#1" to="195406732#0"/>
    <flow id="43" begin="0" end="3600" period="100" from="817967122" to="267213247#1"/>
    <flow id="44" begin="0" end="3600" period="100" from="-498958807#0" to="-230503369#2"/>
    <flow id="45" begin="0" end="3600" period="100" from="-498958807#1" to="43118733#2"/>
    <flow id="46" begin="0" end="3600" period="100" from="480094740#0" to="23715308#0"/>
    <flow id="47" begin="0" end="3600" period="100" from="-39093506#0" to="23715305#1"/>
    <flow id="48" begin="0" end="3600" period="100" from="817967122" to="267215482#0"/>
    <flow id="49" begin="0" end="3600" period="100" from="522735403" to="483872216"/>
    <flow id="50" begin="0" end="3600" period="100" from="-195406732#0" to="43118739"/>
    <flow id="51" begin="0" end="3600" period="100" from="43118738#2" to="267215482#0"/>
    <flow id="52" begin="0" end="3600" period="100" from="230506725" to="43118734"/>
    <flow id="53" begin="0" end="3600" period="100" from="-498958807#1" to="23715308#1"/>
    <flow id="54" begin="0" end="3600" period="100" from="267213247#0" to="498958807#2"/>
    <flow id="55" begin="0" end="3600" period="100" from="483872217#2" to="230503369#1"/>
    <flow id="56" begin="0" end="3600" period="100" from="31119233" to="1065112863#1"/>
    <flow id="57" begin="0" end="3600" period="100" from="498185199#1" to="483872217#0"/>
    <flow id="58" begin="0" end="3600" period="100" from="23715304#1" to="43118734"/>
    <flow id="59" begin="0" end="3600" period="100" from="43118734" to="1008674254"/>
    <flow id="60" begin="0" end="3600" period="100" from="4373934#2" to="267215482#0"/>
    <flow id="61" begin="0" end="3600" period="100" from="451852747" to="267215482#0"/>
    <flow id="62" begin="0" end="3600" period="100" from="-1008674254" to="230506730"/>
    <flow id="63" begin="0" end="3600" period="100" from="-195406732#0" to="498958807#0"/>
    <flow id="64" begin="0" end="3600" period="100" from="483872217#2" to="480094740#1"/>
    <flow id="65" begin="0" end="3600" period="100" from="23715304#2" to="-39093506#0"/>
    <flow id="66" begin="0" end="3600" period="100" from="483872217#2" to="498958807#2"/>
    <flow id="67" begin="0" end="3600" period="100" from="-483872216" to="23715315#1"/>
    <flow id="68" begin="0" end="3600" period="100" from="-39093506#1" to="4369049#1"/>
    <flow id="69" begin="0" end="3600" period="100" from="4373934#2" to="-498958807#1"/>
    <flow id="70" begin="0" end="3600" period="100" from="267215482#0" to="267215482#1"/>
    <flow id="71" begin="0" end="3600" period="100" from="230506725" to="483872217#0"/>
    <flow id="72" begin="0" end="3600" period="100" from="23715315#0" to="111971057#1"/>
    <flow id="73" begin="0" end="3600" period="100" from="39093506#1" to="43154948"/>
    <flow id="74" begin="0" end="3600" period="100" from="195406732#0" to="230506728"/>
    <flow id="75" begin="0" end="3600" period="100" from="817967122" to="43118737#0"/>
    <flow id="76" begin="0" end="3600" period="100" from="23715315#1" to="267213247#2"/>
    <flow id="77" begin="0" end="3600" period="100" from="-498958807#2" to="195406732#0"/>
    <flow id="78" begin="0" end="3600" period="100" from="23715305#1" to="4256531"/>
    <flow id="79" begin="0" end="3600" period="100" from="230503369#2" to="195406732#0"/>
    <flow id="80" begin="0" end="3600" period="100" from="-39093506#1" to="43118733#2"/>
    <flow id="81" begin="0" end="3600" period="100" from="230503369#2" to="49796163"/>
    <flow id="82" begin="0" end="3600" period="100" from="483872217#0" to="-39093506#1"/>
    <flow id="83" begin="0" end="3600" period="100" from="230503369#2" to="43118737#2"/>
    <flow id="84" begin="0" end="3600" period="100" from="230503369#0" to="-498958807#1"/>
    <flow id="85" begin="0" end="3600" period="100" from="498958807#1" to="39093506#0"/>
    <flow id="86" begin="0" end="3600" period="100" from="267215482#0" to="4373934#1"/>
    <flow id="87" begin="0" end="3600" period="100" from="480094740#2" to="1065112866"/>
    <flow id="88" begin="0" end="3600" period="100" from="-498958807#0" to="23715308#1"/>
    <flow id="89" begin="0" end="3600" period="100" from="23715315#0" to="23715312#2"/>
    <flow id="90" begin="0" end="3600" period="100" from="4369049#1" to="43118737#2"/>
    <flow id="91" begin="0" end="3600" period="100" from="575394078" to="-480094741"/>
    <flow id="92" begin="0" end="3600" period="100" from="23715312#1" to="23715304#0"/>
    <flow id="93" begin="0" end="3600" period="100" from="483872217#0" to="230503369#0"/>
    <flow id="94" begin="0" end="3600" period="100" from="111971057#1" to="23715312#1"/>
    <flow id="95" begin="0" end="3600" period="100" from="23715315#0" to="230506722#0"/>
    <flow id="96" begin="0" end="3600" period="100" from="230506722#0" to="498958807#0"/>
    <flow id="97" begin="0" end="3600" period="100" from="23715315#1" to="483872216"/>
    <flow id="98" begin="0" end="3600" period="100" from="4256531" to="-230503369#2"/>
    <flow id="99" begin="0" end="3600" period="100" from="817967122" to="480094740#1"/>
</routes>
